LAMMPS (8 Feb 2023)
# reference: https://docs.lammps.org/Howto_spc.html
units real
atom_style full
region box block -8 8 -8 8 -8 8
create_box 2 box  bond/types 1 angle/types 1                 extra/bond/per/atom 2 extra/angle/per/atom 1 extra/special/per/atom 2
Created orthogonal box = (-8 -8 -8) to (8 8 8)

# water
mass 1 15.9994 	# oxygen
mass 2 1.008	# hydrogen

# potential energy
pair_style lj/cut/coul/cut 10.0
pair_coeff 1 1 0.1553 3.166
pair_coeff 1 2 0.0    1.0
pair_coeff 2 2 0.0    1.0

bond_style zero
bond_coeff 1 1.0

angle_style zero
angle_coeff 1 109.47

# prepare water molecules
molecule water spce.mol
Read molecule template water:
  1 molecules
  0 fragments
  3 atoms with max type 2
  2 bonds with max type 1
  1 angles with max type 1
  0 dihedrals with max type 0
  0 impropers with max type 0
variable nwater	equal 100
create_atoms 0 random 100 34564 NULL mol water 21367 overlap 0.8 maxtry 100
Created 300 atoms

# simulation variable
timestep 1.0

# constraint - bond/angle
fix rigid     all shake 0.0001 10 10000 b 1 a 1
Finding SHAKE clusters ...
       0 = # of size 2 clusters
       0 = # of size 3 clusters
       0 = # of size 4 clusters
     100 = # of frozen angles
  find clusters CPU = 0.001 seconds

# minimization
#minimize 0.0 0.0 1000 10000
minimize 0.0 1.0e-8 1000 100000
Generated 0 of 1 mixed pair_coeff terms from geometric mixing rule
  Substituting constraints with harmonic restraint forces using kbond=1987 (../fix_shake.cpp:358)
Step          Temp          E_pair         E_mol          TotEng         Press
0   0              11780.343      0              11780.343      839586.64
Bond:   1   1.0023    0.112512         200
Angle:  1   109.26    27.0537          100
Loop time of 0.459997 on 8 procs for 42 steps with 300 atoms

Minimization stats:
  Stopping criterion = linesearch alpha is zero
  Energy initial, next-to-last, final =
  Force two-norm initial, final = 38527.205 1080.4516
  Force max component initial, final = 20694.671 364.73908
  Final line search alpha, max atom move = 7.9793563e-15 2.910383e-12
  Iterations, force evaluations = 42 1399

# generate velocity
velocity all create 300.0 5463576

# time evolution - nvt ensemble
fix integrate all nvt temp 300.0 300.0 100.0 #iso 1.0 1.0 100.0

thermo_style custom step temp press etotal density pe ke
thermo 1000

# short equilibration
run 100000
Generated 0 of 1 mixed pair_coeff terms from geometric mixing rule
SHAKE stats (type/ave/delta/count) on step 42
Bond:   1   1.0023    0.112512         200
Angle:  1   109.26    27.0537          100
Step          Temp          Press          TotEng        Density         PotEng         KinEng
42   300            61031.785      586.82459      0.73035334     408.87023      177.95436
Averages over the last 5 of 10 rows, steps 5000 to 9000:
Temp Press TotEng Density PotEng KinEng
309.538 -6953.22 -1285.65 0.730353 -1469.27 183.612
Bond:   1   1         2.01541e-06      200
Angle:  1   109.47    0.000229149      100
SHAKE stats (type/ave/delta/count) on step 20000
Bond:   1   1         9.41413e-07      200
Angle:  1   109.47    7.27071e-05      100
SHAKE stats (type/ave/delta/count) on step 30000
Bond:   1   1         1.80534e-06      200
Angle:  1   109.47    0.000125222      100
SHAKE stats (type/ave/delta/count) on step 40000
Bond:   1   1         3.6948e-06       200
Angle:  1   109.47    0.000197052      100
SHAKE stats (type/ave/delta/count) on step 50000
Bond:   1   1         1.45701e-06      200
Angle:  1   109.47    8.61626e-05      100
SHAKE stats (type/ave/delta/count) on step 60000
Bond:   1   1         3.30582e-06      200
Angle:  1   109.47    0.000326453      100
SHAKE stats (type/ave/delta/count) on step 70000
Bond:   1   1         3.35903e-06      200
Angle:  1   109.47    0.000221543      100
SHAKE stats (type/ave/delta/count) on step 80000
Bond:   1   1         1.16999e-06      200
Angle:  1   109.47    8.12258e-05      100
SHAKE stats (type/ave/delta/count) on step 90000
Bond:   1   1         1.93172e-06      200
Angle:  1   109.47    0.000133295      100
SHAKE stats (type/ave/delta/count) on step 100000
Bond:   1   1         1.51295e-06      200
Angle:  1   109.47    0.000107019      100
Loop time of 22.6635 on 8 procs for 100000 steps with 300 atoms

unfix integrate

# time evolution - npt ensemble
fix integrate all npt temp 300.0 300.0 100.0 iso 1.0 1.0 100.0

# short equilibration
run 200000
Generated 0 of 1 mixed pair_coeff terms from geometric mixing rule
SHAKE stats (type/ave/delta/count) on step 100042
Bond:   1   1         1.43577e-06      200
Angle:  1   109.47    0.00011186       100
Step          Temp          Press          TotEng        Density         PotEng         KinEng
100042   303.1681      -4192.2885     -1093.6105      0.73035334    -1273.4441      179.83362
Averages over the last 5 of 10 rows, steps 105000 to 109000:
Temp Press TotEng Density PotEng KinEng
300.866 2039.14 110.634 0.823977 -67.8344 178.468
Bond:   1   1.00046   9.62476e-07      200
Angle:  1   109.47    6.98447e-05      100
SHAKE stats (type/ave/delta/count) on step 120000
Bond:   1   0.99997   1.05005e-06      200
Angle:  1   109.47    0.000112946      100
SHAKE stats (type/ave/delta/count) on step 130000
Bond:   1   0.999882  1.414e-06        200
Angle:  1   109.47    0.000100196      100
SHAKE stats (type/ave/delta/count) on step 140000
Bond:   1   0.999394  1.28415e-06      200
Angle:  1   109.47    0.000126597      100
SHAKE stats (type/ave/delta/count) on step 150000
Bond:   1   0.999929  1.8293e-06       200
Angle:  1   109.47    0.000141101      100
SHAKE stats (type/ave/delta/count) on step 160000
Bond:   1   1.00004   9.0272e-07       200
Angle:  1   109.47    7.77204e-05      100
SHAKE stats (type/ave/delta/count) on step 170000
Bond:   1   0.999739  1.20611e-06      200
Angle:  1   109.47    0.000102436      100
SHAKE stats (type/ave/delta/count) on step 180000
Bond:   1   1.00006   1.99117e-06      200
Angle:  1   109.47    0.000132466      100
SHAKE stats (type/ave/delta/count) on step 190000
Bond:   1   1.00025   3.35747e-06      200
Angle:  1   109.47    0.000265881      100
SHAKE stats (type/ave/delta/count) on step 200000
Bond:   1   1.00053   1.35507e-06      200
Angle:  1   109.47    9.39248e-05      100
SHAKE stats (type/ave/delta/count) on step 210000
Bond:   1   0.999916  1.61642e-06      200
Angle:  1   109.47    0.000111965      100
SHAKE stats (type/ave/delta/count) on step 220000
Bond:   1   1.00012   1.71758e-06      200
Angle:  1   109.47    0.000142758      100
SHAKE stats (type/ave/delta/count) on step 230000
Bond:   1   0.999399  3.53024e-06      200
Angle:  1   109.47    0.000199555      100
SHAKE stats (type/ave/delta/count) on step 240000
Bond:   1   0.999997  2.4963e-06       200
Angle:  1   109.47    0.000251161      100
SHAKE stats (type/ave/delta/count) on step 250000
Bond:   1   1.00002   2.84371e-06      200
Angle:  1   109.47    0.000200754      100
SHAKE stats (type/ave/delta/count) on step 260000
Bond:   1   0.999855  1.49826e-06      200
Angle:  1   109.47    0.000154891      100
SHAKE stats (type/ave/delta/count) on step 270000
Bond:   1   1.00019   1.6138e-06       200
Angle:  1   109.47    0.000101418      100
SHAKE stats (type/ave/delta/count) on step 280000
Bond:   1   0.999664  1.72401e-06      200
Angle:  1   109.47    0.000126991      100
SHAKE stats (type/ave/delta/count) on step 290000
Bond:   1   0.999566  1.56776e-06      200
Angle:  1   109.47    0.000115641      100
SHAKE stats (type/ave/delta/count) on step 300000
Bond:   1   0.999991  1.50278e-06      200
Angle:  1   109.47    0.000119208      100
Loop time of 51.9022 on 8 procs for 200000 steps with 300 atoms

# DUMP TRAJECTORY
dump            prod all custom 200 spce.lammpstrj id type xu yu zu
dump_modify     prod sort  id

# production run
timestep 2.0
run 200000
Generated 0 of 1 mixed pair_coeff terms from geometric mixing rule
SHAKE stats (type/ave/delta/count) on step 300042
Bond:   1   0.999801  1.1103e-06       200
Angle:  1   109.47    8.85553e-05      100
Step          Temp          Press          TotEng        Density         PotEng         KinEng
300042   293.62649      2675.9599      6.4556771      0.90596128    -167.71804      174.17371
Averages over the last 5 of 10 rows, steps 305000 to 309000:
Temp Press TotEng Density PotEng KinEng
308.751 160.898 -240.992 0.910359 -424.137 183.145
Bond:   1   0.999885  1.56432e-05      200
Angle:  1   109.47    0.00152172       100
SHAKE stats (type/ave/delta/count) on step 320000
Bond:   1   0.999908  6.21833e-06      200
Angle:  1   109.47    0.000546472      100
SHAKE stats (type/ave/delta/count) on step 330000
Bond:   1   0.999797  5.34187e-06      200
Angle:  1   109.47    0.000502358      100
SHAKE stats (type/ave/delta/count) on step 340000
Bond:   1   0.999159  7.51111e-06      200
Angle:  1   109.47    0.000787702      100
SHAKE stats (type/ave/delta/count) on step 350000
Bond:   1   1.00009   1.41818e-05      200
Angle:  1   109.47    0.00107574       100
SHAKE stats (type/ave/delta/count) on step 360000
Bond:   1   1.00095   1.01107e-05      200
Angle:  1   109.47    0.000715097      100
SHAKE stats (type/ave/delta/count) on step 370000
Bond:   1   0.999991  6.45243e-06      200
Angle:  1   109.47    0.000469626      100
SHAKE stats (type/ave/delta/count) on step 380000
Bond:   1   0.999981  1.08259e-05      200
Angle:  1   109.47    0.00118068       100
SHAKE stats (type/ave/delta/count) on step 390000
Bond:   1   0.999515  1.45379e-05      200
Angle:  1   109.47    0.00170592       100
SHAKE stats (type/ave/delta/count) on step 400000
Bond:   1   0.999785  4.1824e-06       200
Angle:  1   109.47    0.000370911      100
SHAKE stats (type/ave/delta/count) on step 410000
Bond:   1   0.999889  4.58324e-06      200
Angle:  1   109.47    0.000437977      100
SHAKE stats (type/ave/delta/count) on step 420000
Bond:   1   0.999245  4.05081e-06      200
Angle:  1   109.47    0.000443658      100
SHAKE stats (type/ave/delta/count) on step 430000
Bond:   1   1.00127   1.38575e-05      200
Angle:  1   109.47    0.000763582      100
SHAKE stats (type/ave/delta/count) on step 440000
Bond:   1   0.99925   9.32176e-06      200
Angle:  1   109.47    0.000894226      100
SHAKE stats (type/ave/delta/count) on step 450000
Bond:   1   0.999849  1.45749e-05      200
Angle:  1   109.47    0.00156876       100
SHAKE stats (type/ave/delta/count) on step 460000
Bond:   1   0.998718  1.81864e-05      200
Angle:  1   109.47    0.00133989       100
SHAKE stats (type/ave/delta/count) on step 470000
Bond:   1   0.999233  1.57245e-05      200
Angle:  1   109.47    0.000939558      100
SHAKE stats (type/ave/delta/count) on step 480000
Bond:   1   0.999292  4.57141e-06      200
Angle:  1   109.47    0.000407003      100
SHAKE stats (type/ave/delta/count) on step 490000
Bond:   1   0.999762  4.65367e-06      200
Angle:  1   109.47    0.000432495      100
SHAKE stats (type/ave/delta/count) on step 500000
Bond:   1   0.999604  1.23327e-05      200
Angle:  1   109.47    0.00099961       100
Loop time of 55.1366 on 8 procs for 200000 steps with 300 atoms

write_data spce.data nocoeff
System init for write_data ...
Generated 0 of 1 mixed pair_coeff terms from geometric mixing rule
